/*--------------------------------*- C++ -*----------------------------------*\
  =========                 |
  \\      /  F ield         | OpenFOAM: The Open Source CFD Toolbox
   \\    /   O peration     | Website:  https://openfoam.org
    \\  /    A nd           | Version:  6
     \\/     M anipulation  |
\*---------------------------------------------------------------------------*/
FoamFile
{
    version     2.0;
    format      ascii;
    class       polyBoundaryMesh;
    location    "constant/polyMesh";
    object      boundary;
}
// * * * * * * * * * * * * * * * * * * * * * * * * * * * * * * * * * * * * * //

5
(
    frontAndBack
    {
        type            patch;
        nFaces          8;
        startFace       12;
    }
    inlet
    {
        type            patch;
        nFaces          4;
        startFace       20;
    }
    outlet
    {
        type            patch;
        nFaces          4;
        startFace       24;
    }
    lowerWall
    {
        type            wall;
        inGroups        1(wall);
        nFaces          4;
        startFace       28;
    }
    upperWall
    {
        type            patch;
        nFaces          4;
        startFace       32;
    }
)

// ************************************************************************* //
