/*--------------------------------*- C++ -*----------------------------------*\
  =========                 |
  \\      /  F ield         | OpenFOAM: The Open Source CFD Toolbox
   \\    /   O peration     | Website:  https://openfoam.org
    \\  /    A nd           | Version:  6
     \\/     M anipulation  |
\*---------------------------------------------------------------------------*/
FoamFile
{
    version     2.0;
    format      ascii;
    class       dictionary;
    object      blockMeshDict;
}
// * * * * * * * * * * * * * * * * * * * * * * * * * * * * * * * * * * * * * //
//-wr    /home/pi/OpenFOAM/OpenFOAM-6/src/mesh/blockMesh/blockMesh/blockMesh.H
geometry
{
}

vertices
(
 (0 0 0)  //a
 (1 0 0)  //b
 (1 1 0)  //c
 (0 1 0)  //d
 (0 0 1)  //e
 (1 0 1)  //f
 (1 1 1)  //g
 (0 1 1)  //h
 );

blocks
(
 //-wr    hex (0 1 2 3 4 5 6 7) (1 1 1) simpleGrading (1 1 1)
 hex (0 1 2 3 4 5 6 7) (1 1 1) monkey (1 1 1)

        //-wr    "                 7 ---- 6
        //-wr    "            f5   |\     |\   f3
        //-wr    "            |    | 4 ---- 5   \
        //-wr    "            |    3 |--- 2 |    \
        //-wr    "            |     \|     \|    f2
        //-wr    "            f4     0 ---- 1
        //-wr
        //-wr                        f0 ---f1
 );

edges
(
);

faces
(
);


defaultPatch
{
}

boundary
( 
);

// ************************************************************************* //
