/*--------------------------------*- C++ -*----------------------------------*\
  =========                 |
  \\      /  F ield         | OpenFOAM: The Open Source CFD Toolbox
   \\    /   O peration     | Website:  https://openfoam.org
    \\  /    A nd           | Version:  6
     \\/     M anipulation  |
\*---------------------------------------------------------------------------*/
FoamFile
{
    version     2.0;
    format      ascii;
    class       dictionary;
    object      blockMeshDict;
}
// * * * * * * * * * * * * * * * * * * * * * * * * * * * * * * * * * * * * * //
geometry
{
 
}

vertices
(
 name v0 project (-1 -0.1 -1) (monkey hi-monkey)
 );

blocks
(
);

edges
(
);

faces
(
);


defaultPatch
{
}

boundary
( 
);

// ************************************************************************* //
