/*--------------------------------*- C++ -*----------------------------------*\
  =========                 |
  \\      /  F ield         | OpenFOAM: The Open Source CFD Toolbox
   \\    /   O peration     | Website:  https://openfoam.org
    \\  /    A nd           | Version:  6
     \\/     M anipulation  |
\*---------------------------------------------------------------------------*/
FoamFile
{
    version     2.0;
    format      ascii;
    class       dictionary;
    location    "system";
    object      controlDict;
}
// * * * * * * * * * * * * * * * * * * * * * * * * * * * * * * * * * * * * * //

application     icoUncoupledKinematicParcelFoam;

//-wr when the simulation is running, there's only one folders:
//-processors4. By double checking, I found this solver is running
//-with 4 cores. Massive improvement for file system.

// how to run it? revise the Allrun scripts:
//-wr    runApplication decomposePar -fileHandler collated
//-wr    runParallel $application -fileHandler collated

//-wr    when finish using those to reconstuct:
//-wr    runApplication reconstructPar -latestTime -fileHandler collated

startFrom       latestTime;

startTime       0;

//-wr    stopAt          writeNow;
stopAt          endTime;

endTime         2.5;

deltaT          5e-5;

writeControl    runTime;

writeInterval   0.05;

purgeWrite      0;

writeFormat     binary;

writePrecision  6;

writeCompression off;

timeFormat      general;

timePrecision   6;

runTimeModifiable yes;

// ************************************************************************* //
